gridlabd-4/PG&E/PL0001.glm
// PG&E PL0001 Taxonomy Feeder Model

module powerflow
{
	solver_method NR;
	default_maximum_voltage_error 1e-4;
}

//*********************************************
// Conductor Objects
//*********************************************
// OHCond_715_AAC_I
object overhead_line_conductor {
	name OHCond_715_AAC_I;
	resistance 0.1324968876;
	geometric_mean_radius 0.0311920128;
	diameter 0.972998054;
}

// OHCond_4_ACSR_I
object overhead_line_conductor {
	name OHCond_4_ACSR_I;
	resistance 2.1715395317;
	geometric_mean_radius 0.0524265688;
	diameter 0.2499995;
}

// OHCond_6_CU_I
object overhead_line_conductor {
	name OHCond_6_CU_I;
	resistance 2.2113584416;
	geometric_mean_radius 0.00525866;
	diameter 0.161999676;
}

// OHCond_DEFAULT
object overhead_line_conductor {
	name OHCond_DEFAULT;
	resistance 0.27792611;
	geometric_mean_radius 0.01667552;
	diameter 0.52799107;
}

// OHCond_1/0_CU_I
object overhead_line_conductor {
	name OHCond_1/0_CU_I;
	resistance 0.5615250025;
	geometric_mean_radius 0.0111371416;
	diameter 0.367999264;
}

// OHCond_4/0_AAC_I
object overhead_line_conductor {
	name OHCond_4/0_AAC_I;
	resistance 0.4406874934;
	geometric_mean_radius 0.015765976;
	diameter 0.521998956;
}

// UGCable_DEFAULT
object underground_line_conductor {
	name UGCable_DEFAULT;
	outer_diameter 0.6692917;
	conductor_gmr 0.01667552;
	conductor_diameter 0.52799107;
	conductor_resistance 0.27792611;
	neutral_gmr 0.01667552;
	neutral_resistance 0.27792611;
	neutral_diameter 0.52799107;
	neutral_strands 2;
}

// UGCable_700_AL_XLP-CONC-PVC_22KV_3P
object underground_line_conductor {
	name UGCable_700_AL_XLP-CONC-PVC_22KV_3P;
	outer_diameter 0.6692917;
	conductor_gmr 0.01667552;
	conductor_diameter 0.52799107;
	conductor_resistance 0.27792611;
	neutral_gmr 0.01667552;
	neutral_resistance 0.27792611;
	neutral_diameter 0.52799107;
	neutral_strands 2;
}

// UGCable_2_AL_PEC_22KV_2P
object underground_line_conductor {
	name UGCable_2_AL_PEC_22KV_2P;
	outer_diameter 0.669290518897;
	conductor_gmr 0.01667552;
	conductor_diameter 0.52799107;
	conductor_resistance 0.27792611;
	neutral_gmr 0.01667552;
	neutral_resistance 0.27792611;
	neutral_diameter 0.52799107;
	neutral_strands 2;
}

// UGCable_2_AL_PEC_22KV_3P
object underground_line_conductor {
	name UGCable_2_AL_PEC_22KV_3P;
	outer_diameter 0.669290518897;
	conductor_gmr 0.01667552;
	conductor_diameter 0.52799107;
	conductor_resistance 0.27792611;
	neutral_gmr 0.01667552;
	neutral_resistance 0.27792611;
	neutral_diameter 0.52799107;
	neutral_strands 2;
}

// UGCable_1/0_AL_EPR-CONC-ENCAP-PE_2P
object underground_line_conductor {
	name UGCable_1/0_AL_EPR-CONC-ENCAP-PE_2P;
	outer_diameter 0.669290518897;
	conductor_gmr 0.01667552;
	conductor_diameter 0.52799107;
	conductor_resistance 0.27792611;
	neutral_gmr 0.01667552;
	neutral_resistance 0.27792611;
	neutral_diameter 0.52799107;
	neutral_strands 2;
}

// UGCable_2_AL_XLP-CONC-CIC_22KV_2P
object underground_line_conductor {
	name UGCable_2_AL_XLP-CONC-CIC_22KV_2P;
	outer_diameter 0.669290518897;
	conductor_gmr 0.01667552;
	conductor_diameter 0.52799107;
	conductor_resistance 0.27792611;
	neutral_gmr 0.01667552;
	neutral_resistance 0.27792611;
	neutral_diameter 0.52799107;
	neutral_strands 2;
}

// UGCable_2_AL_XLP-CONC-CIC_22KV_3P
object underground_line_conductor {
	name UGCable_2_AL_XLP-CONC-CIC_22KV_3P;
	outer_diameter 0.6692917;
	conductor_gmr 0.01667552;
	conductor_diameter 0.52799107;
	conductor_resistance 0.27792611;
	neutral_gmr 0.01667552;
	neutral_resistance 0.27792611;
	neutral_diameter 0.52799107;
	neutral_strands 2;
}

// UGCable_2_AL_XLP-CONC-PVC_22KV_2P
object underground_line_conductor {
	name UGCable_2_AL_XLP-CONC-PVC_22KV_2P;
	outer_diameter 0.669290518897;
	conductor_gmr 0.01667552;
	conductor_diameter 0.52799107;
	conductor_resistance 0.27792611;
	neutral_gmr 0.01667552;
	neutral_resistance 0.27792611;
	neutral_diameter 0.52799107;
	neutral_strands 2;
}

// UGCable_2_AL_XLP-CONC-PVC_22KV_3P
object underground_line_conductor {
	name UGCable_2_AL_XLP-CONC-PVC_22KV_3P;
	outer_diameter 0.6692917;
	conductor_gmr 0.01667552;
	conductor_diameter 0.52799107;
	conductor_resistance 0.27792611;
	neutral_gmr 0.01667552;
	neutral_resistance 0.27792611;
	neutral_diameter 0.52799107;
	neutral_strands 2;
}

// UGCable_1100_AL_EPR-CONC-ENCAP-PE_3P
object underground_line_conductor {
	name UGCable_1100_AL_EPR-CONC-ENCAP-PE_3P;
	outer_diameter 0.6692917;
	conductor_gmr 0.01667552;
	conductor_diameter 0.52799107;
	conductor_resistance 0.27792611;
	neutral_gmr 0.01667552;
	neutral_resistance 0.27792611;
	neutral_diameter 0.52799107;
	neutral_strands 2;
}

// UGCable_1/0_AL_XLP-CONC-PVC_22KV_3P
object underground_line_conductor {
	name UGCable_1/0_AL_XLP-CONC-PVC_22KV_3P;
	outer_diameter 0.669290518897;
	conductor_gmr 0.01667552;
	conductor_diameter 0.52799107;
	conductor_resistance 0.27792611;
	neutral_gmr 0.01667552;
	neutral_resistance 0.27792611;
	neutral_diameter 0.52799107;
	neutral_strands 2;
}

// UGCable_2_AL_XLP-PVC_22KV_2P
object underground_line_conductor {
	name UGCable_2_AL_XLP-PVC_22KV_2P;
	outer_diameter 0.669290518897;
	conductor_gmr 0.01667552;
	conductor_diameter 0.52799107;
	conductor_resistance 0.27792611;
	neutral_gmr 0.01667552;
	neutral_resistance 0.27792611;
	neutral_diameter 0.52799107;
	neutral_strands 2;
}

// UGCable_1/0_AL_XLP-CONC-CIC_22KV_3P
object underground_line_conductor {
	name UGCable_1/0_AL_XLP-CONC-CIC_22KV_3P;
	outer_diameter 0.6692917;
	conductor_gmr 0.01667552;
	conductor_diameter 0.52799107;
	conductor_resistance 0.27792611;
	neutral_gmr 0.01667552;
	neutral_resistance 0.27792611;
	neutral_diameter 0.52799107;
	neutral_strands 2;
}

// UGCable_1000_AL_XLP-CONC-PVC_22KV_3P
object underground_line_conductor {
	name UGCable_1000_AL_XLP-CONC-PVC_22KV_3P;
	outer_diameter 0.6692917;
	conductor_gmr 0.01667552;
	conductor_diameter 0.52799107;
	conductor_resistance 0.27792611;
	neutral_gmr 0.01667552;
	neutral_resistance 0.27792611;
	neutral_diameter 0.52799107;
	neutral_strands 2;
}

// UGCable_2_AL_XLP-PVC_22KV_3P
object underground_line_conductor {
	name UGCable_2_AL_XLP-PVC_22KV_3P;
	outer_diameter 0.6692917;
	conductor_gmr 0.01667552;
	conductor_diameter 0.52799107;
	conductor_resistance 0.27792611;
	neutral_gmr 0.01667552;
	neutral_resistance 0.27792611;
	neutral_diameter 0.52799107;
	neutral_strands 2;
}

// UGCable_1/0_AL_EPR-CONC-ENCAP-PE_3P
object underground_line_conductor {
	name UGCable_1/0_AL_EPR-CONC-ENCAP-PE_3P;
	outer_diameter 0.669290518897;
	conductor_gmr 0.01667552;
	conductor_diameter 0.52799107;
	conductor_resistance 0.27792611;
	neutral_gmr 0.01667552;
	neutral_resistance 0.27792611;
	neutral_diameter 0.52799107;
	neutral_strands 2;
}

// UGCable_750_CU_1C_XLP-PVC_15KV_3P
object underground_line_conductor {
	name UGCable_750_CU_1C_XLP-PVC_15KV_3P;
	outer_diameter 0.6692917;
	conductor_gmr 0.01667552;
	conductor_diameter 0.52799107;
	conductor_resistance 0.27792611;
	neutral_gmr 0.01667552;
	neutral_resistance 0.27792611;
	neutral_diameter 0.52799107;
	neutral_strands 2;
}

//*********************************************
// Line spacing objects
//*********************************************
// OHSpacing_TRIANGULAR_3P_52
object line_spacing {
	name OHSpacing_TRIANGULAR_3P_52;
	distance_AB 4.3332773592;
	distance_BC 4.3332773592;
	distance_AC 4.3332773592;
	distance_AN 6.6665888808;
	distance_BN 6.6665888808;
	distance_CN 6.6665888808;
}

// UGSpacing_2_AL_XLP-CONC-CIC_22KV_3P
object line_spacing {
	name UGSpacing_2_AL_XLP-CONC-CIC_22KV_3P;
	distance_AB 0.147636;
	distance_BC 0.147636;
	distance_AC 0.295272;
}

// UGSpacing_1000_AL_XLP-CONC-PVC_22KV_3P
object line_spacing {
	name UGSpacing_1000_AL_XLP-CONC-PVC_22KV_3P;
	distance_AB 0.147636;
	distance_BC 0.147636;
	distance_AC 0.295272;
}

// OHSpacing_TRIANGULAR_2P_30
object line_spacing {
	name OHSpacing_TRIANGULAR_2P_30;
	distance_AB 2.4999696;
	distance_BC 2.4999696;
	distance_AC 2.4999696;
	distance_AN 2.4999696;
	distance_BN 2.4999696;
	distance_CN 2.4999696;
}

// UGSpacing_2_AL_XLP-PVC_22KV_2P
object line_spacing {
	name UGSpacing_2_AL_XLP-PVC_22KV_2P;
	distance_AB 0.147636;
	distance_BC 0.0;
	distance_AC 0.0;
}

// UGSpacing_2_AL_XLP-CONC-PVC_22KV_2P
object line_spacing {
	name UGSpacing_2_AL_XLP-CONC-PVC_22KV_2P;
	distance_AB 0.147636;
	distance_BC 0.0;
	distance_AC 0.0;
}

// UGSpacing_1/0_AL_EPR-CONC-ENCAP-PE_3P
object line_spacing {
	name UGSpacing_1/0_AL_EPR-CONC-ENCAP-PE_3P;
	distance_AB 0.147636;
	distance_BC 0.147636;
	distance_AC 0.295272;
}

// OHSpacing_HORIZONTAL_2P_56
object line_spacing {
	name OHSpacing_HORIZONTAL_2P_56;
	distance_AB 4.66660992;
	distance_BC 4.66660992;
	distance_AC 4.66660992;
	distance_AN 6.99991488;
	distance_BN 6.99991488;
	distance_CN 6.99991488;
}

// OHSpacing_HORIZONTAL_2P_52
object line_spacing {
	name OHSpacing_HORIZONTAL_2P_52;
	distance_AB 4.3332773592;
	distance_BC 4.3332773592;
	distance_AC 4.3332773592;
	distance_AN 6.6665888808;
	distance_BN 6.6665888808;
	distance_CN 6.6665888808;
}

// UGSpacing_2_AL_PEC_22KV_3P
object line_spacing {
	name UGSpacing_2_AL_PEC_22KV_3P;
	distance_AB 0.147636;
	distance_BC 0.147636;
	distance_AC 0.295272;
}

// OHSpacing_TRIANGULAR_3P_30
object line_spacing {
	name OHSpacing_TRIANGULAR_3P_30;
	distance_AB 2.4999696;
	distance_BC 2.4999696;
	distance_AC 2.4999696;
	distance_AN 4.9999392;
	distance_BN 4.9999392;
	distance_CN 4.9999392;
}

// UGSpacing_750_CU_1C_XLP-PVC_15KV_3P
object line_spacing {
	name UGSpacing_750_CU_1C_XLP-PVC_15KV_3P;
	distance_AB 0.147636;
	distance_BC 0.147636;
	distance_AC 0.295272;
}

// UGSpacing_DEFAULT
object line_spacing {
	name UGSpacing_DEFAULT;
	distance_AB 0.147636;
	distance_BC 0.147636;
	distance_AC 0.295272;
}

// UGSpacing_2_AL_XLP-CONC-CIC_22KV_2P
object line_spacing {
	name UGSpacing_2_AL_XLP-CONC-CIC_22KV_2P;
	distance_AB 0.147636;
	distance_BC 0.0;
	distance_AC 0.0;
}

// OHSpacing_HORIZONTAL_3P_52
object line_spacing {
	name OHSpacing_HORIZONTAL_3P_52;
	distance_AB 4.3332773592;
	distance_BC 4.3332773592;
	distance_AC 4.3332773592;
	distance_AN 6.6665888808;
	distance_BN 6.6665888808;
	distance_CN 6.6665888808;
}

// UGSpacing_1/0_AL_XLP-CONC-PVC_22KV_3P
object line_spacing {
	name UGSpacing_1/0_AL_XLP-CONC-PVC_22KV_3P;
	distance_AB 0.147636;
	distance_BC 0.147636;
	distance_AC 0.295272;
}

// OHSpacing_HORIZONTAL_3P_30
object line_spacing {
	name OHSpacing_HORIZONTAL_3P_30;
	distance_AB 2.4999696;
	distance_BC 2.4999696;
	distance_AC 2.4999696;
	distance_AN 3.399958656;
	distance_BN 3.399958656;
	distance_CN 3.399958656;
}

// UGSpacing_2_AL_XLP-PVC_22KV_3P
object line_spacing {
	name UGSpacing_2_AL_XLP-PVC_22KV_3P;
	distance_AB 0.147636;
	distance_BC 0.147636;
	distance_AC 0.295272;
}

// UGSpacing_2_AL_XLP-CONC-PVC_22KV_3P
object line_spacing {
	name UGSpacing_2_AL_XLP-CONC-PVC_22KV_3P;
	distance_AB 0.147636;
	distance_BC 0.147636;
	distance_AC 0.295272;
}

// OHSpacing_DEFAULT
object line_spacing {
	name OHSpacing_DEFAULT;
	distance_AB 7.87392;
	distance_BC 11.81088;
	distance_AC 19.6848;
	distance_AN 16.1427362481;
	distance_BN 11.0041377309;
	distance_CN 12.0141802992;
	distance_AE 54.9534;
	distance_BE 54.9534;
	distance_CE 54.9534;
	distance_NE 45.111;
}

// UGSpacing_1/0_AL_EPR-CONC-ENCAP-PE_2P
object line_spacing {
	name UGSpacing_1/0_AL_EPR-CONC-ENCAP-PE_2P;
	distance_AB 0.147636;
	distance_BC 0.0;
	distance_AC 0.0;
}

// UGSpacing_1100_AL_EPR-CONC-ENCAP-PE_3P
object line_spacing {
	name UGSpacing_1100_AL_EPR-CONC-ENCAP-PE_3P;
	distance_AB 0.147636;
	distance_BC 0.147636;
	distance_AC 0.295272;
}

// UGSpacing_2_AL_PEC_22KV_2P
object line_spacing {
	name UGSpacing_2_AL_PEC_22KV_2P;
	distance_AB 0.147636;
	distance_BC 0.0;
	distance_AC 0.0;
}

// UGSpacing_700_AL_XLP-CONC-PVC_22KV_3P
object line_spacing {
	name UGSpacing_700_AL_XLP-CONC-PVC_22KV_3P;
	distance_AB 0.147636;
	distance_BC 0.147636;
	distance_AC 0.295272;
}

// UGSpacing_1/0_AL_XLP-CONC-CIC_22KV_3P
object line_spacing {
	name UGSpacing_1/0_AL_XLP-CONC-CIC_22KV_3P;
	distance_AB 0.147636;
	distance_BC 0.147636;
	distance_AC 0.295272;
}

//*********************************************
// Line Config objects
//*********************************************
// L_300006480_LineConfig
object line_configuration {
	name L_300006480_LineConfig;
	conductor_A OHCond_6_CU_I;
	conductor_B OHCond_6_CU_I;
	conductor_C OHCond_6_CU_I;
	spacing OHSpacing_HORIZONTAL_3P_52;
}

// L_300006441_LineConfig
object line_configuration {
	name L_300006441_LineConfig;
	conductor_A OHCond_4_ACSR_I;
	conductor_B OHCond_4_ACSR_I;
	conductor_C OHCond_4_ACSR_I;
	spacing OHSpacing_HORIZONTAL_3P_52;
}

// L_300062725_LineConfig
object line_configuration {
	name L_300062725_LineConfig;
	conductor_A OHCond_6_CU_I;
	conductor_B OHCond_6_CU_I;
	conductor_C OHCond_6_CU_I;
	spacing OHSpacing_TRIANGULAR_3P_30;
}

// L_300064986_LineConfig
object line_configuration {
	name L_300064986_LineConfig;
	conductor_A OHCond_4_ACSR_I;
	conductor_B OHCond_4_ACSR_I;
	conductor_C OHCond_4_ACSR_I;
	spacing OHSpacing_TRIANGULAR_3P_30;
}

// L_300031618_LineConfig
object line_configuration {
	name L_300031618_LineConfig;
	conductor_A OHCond_715_AAC_I;
	conductor_B OHCond_715_AAC_I;
	conductor_C OHCond_715_AAC_I;
	spacing OHSpacing_TRIANGULAR_3P_30;
}

// L_300064334_LineConfig
object line_configuration {
	name L_300064334_LineConfig;
	conductor_A OHCond_4_ACSR_I;
	conductor_B OHCond_4_ACSR_I;
	conductor_C OHCond_4_ACSR_I;
	spacing OHSpacing_HORIZONTAL_3P_52;
}

// L_300064973_LineConfig
object line_configuration {
	name L_300064973_LineConfig;
	conductor_A OHCond_4_ACSR_I;
	conductor_B OHCond_4_ACSR_I;
	spacing OHSpacing_TRIANGULAR_2P_30;
}

// L_300062717_LineConfig
object line_configuration {
	name L_300062717_LineConfig;
	conductor_A OHCond_715_AAC_I;
	conductor_B OHCond_715_AAC_I;
	conductor_C OHCond_715_AAC_I;
	spacing OHSpacing_HORIZONTAL_3P_52;
}

// L_300062716_LineConfig
object line_configuration {
	name L_300062716_LineConfig;
	conductor_A OHCond_4_ACSR_I;
	conductor_B OHCond_4_ACSR_I;
	conductor_C OHCond_4_ACSR_I;
	spacing OHSpacing_HORIZONTAL_3P_52;
}

// L_300003132_LineConfig
object line_configuration {
	name L_300003132_LineConfig;
	conductor_A OHCond_4/0_AAC_I;
	conductor_B OHCond_4/0_AAC_I;
	conductor_C OHCond_4/0_AAC_I;
	spacing OHSpacing_HORIZONTAL_3P_52;
}

// L_300062719_LineConfig
object line_configuration {
	name L_300062719_LineConfig;
	conductor_A OHCond_6_CU_I;
	conductor_B OHCond_6_CU_I;
	conductor_C OHCond_6_CU_I;
	spacing OHSpacing_TRIANGULAR_3P_30;
}

// L_300103462_LineConfig
object line_configuration {
	name L_300103462_LineConfig;
	conductor_A OHCond_715_AAC_I;
	conductor_B OHCond_715_AAC_I;
	conductor_C OHCond_715_AAC_I;
	spacing OHSpacing_HORIZONTAL_3P_52;
}

// L_300064335_LineConfig
object line_configuration {
	name L_300064335_LineConfig;
	conductor_A OHCond_715_AAC_I;
	conductor_B OHCond_715_AAC_I;
	conductor_C OHCond_715_AAC_I;
	spacing OHSpacing_TRIANGULAR_3P_30;
}

// L_300116512_LineConfig
object line_configuration {
	name L_300116512_LineConfig;
	conductor_A OHCond_715_AAC_I;
	conductor_B OHCond_715_AAC_I;
	conductor_C OHCond_715_AAC_I;
	spacing OHSpacing_HORIZONTAL_3P_52;
}

// L_300103460_LineConfig
object line_configuration {
	name L_300103460_LineConfig;
	conductor_A OHCond_715_AAC_I;
	conductor_B OHCond_715_AAC_I;
	conductor_C OHCond_715_AAC_I;
	spacing OHSpacing_HORIZONTAL_3P_52;
}

// L_300021645_LineConfig
object line_configuration {
	name L_300021645_LineConfig;
	conductor_A OHCond_4/0_AAC_I;
	conductor_B OHCond_4/0_AAC_I;
	conductor_C OHCond_4/0_AAC_I;
	spacing OHSpacing_HORIZONTAL_3P_52;
}

// L_300009813_LineConfig
object line_configuration {
	name L_300009813_LineConfig;
	conductor_A OHCond_4_ACSR_I;
	conductor_B OHCond_4_ACSR_I;
	conductor_C OHCond_4_ACSR_I;
	spacing OHSpacing_HORIZONTAL_3P_52;
}

// L_300062715_LineConfig
object line_configuration {
	name L_300062715_LineConfig;
	conductor_A OHCond_4_ACSR_I;
	conductor_B OHCond_4_ACSR_I;
	conductor_C OHCond_4_ACSR_I;
	spacing OHSpacing_HORIZONTAL_3P_52;
}

// L_300116070_LineConfig
object line_configuration {
	name L_300116070_LineConfig;
	conductor_A OHCond_6_CU_I;
	conductor_B OHCond_6_CU_I;
	conductor_C OHCond_6_CU_I;
	spacing OHSpacing_HORIZONTAL_3P_52;
}

// L_300064982_LineConfig
object line_configuration {
	name L_300064982_LineConfig;
	conductor_A OHCond_715_AAC_I;
	conductor_B OHCond_715_AAC_I;
	conductor_C OHCond_715_AAC_I;
	spacing OHSpacing_TRIANGULAR_3P_30;
}

// L_300064332_LineConfig
object line_configuration {
	name L_300064332_LineConfig;
	conductor_A OHCond_4_ACSR_I;
	conductor_B OHCond_4_ACSR_I;
	conductor_C OHCond_4_ACSR_I;
	spacing OHSpacing_HORIZONTAL_3P_52;
}

// L_300116721_LineConfig
object line_configuration {
	name L_300116721_LineConfig;
	conductor_A OHCond_715_AAC_I;
	conductor_B OHCond_715_AAC_I;
	conductor_C OHCond_715_AAC_I;
	spacing OHSpacing_HORIZONTAL_3P_52;
}

// L_300095120_LineConfig
object line_configuration {
	name L_300095120_LineConfig;
	conductor_A OHCond_4_ACSR_I;
	conductor_B OHCond_4_ACSR_I;
	conductor_C OHCond_4_ACSR_I;
	spacing OHSpacing_TRIANGULAR_3P_52;
}

// L_300062663_LineConfig
object line_configuration {
	name L_300062663_LineConfig;
	conductor_A OHCond_1/0_CU_I;
	conductor_B OHCond_1/0_CU_I;
	conductor_C OHCond_1/0_CU_I;
	spacing OHSpacing_HORIZONTAL_3P_52;
}

// L_300006477_LineConfig
object line_configuration {
	name L_300006477_LineConfig;
	conductor_A OHCond_715_AAC_I;
	conductor_B OHCond_715_AAC_I;
	conductor_C OHCond_715_AAC_I;
	spacing OHSpacing_HORIZONTAL_3P_52;
}

// L_300035246_LineConfig
object line_configuration {
	name L_300035246_LineConfig;
	conductor_A OHCond_715_AAC_I;
	conductor_B OHCond_715_AAC_I;
	conductor_C OHCond_715_AAC_I;
	spacing OHSpacing_TRIANGULAR_3P_30;
}

// L_300062664_LineConfig
object line_configuration {
	name L_300062664_LineConfig;
	conductor_A OHCond_1/0_CU_I;
	conductor_B OHCond_1/0_CU_I;
	conductor_C OHCond_1/0_CU_I;
	spacing OHSpacing_HORIZONTAL_3P_52;
}

// L_300117693_LineConfig
object line_configuration {
	name L_300117693_LineConfig;
	conductor_A OHCond_715_AAC_I;
	conductor_B OHCond_715_AAC_I;
	conductor_C OHCond_715_AAC_I;
	spacing OHSpacing_TRIANGULAR_3P_30;
}

// L_300062723_LineConfig
object line_configuration {
	name L_300062723_LineConfig;
	conductor_A OHCond_4_ACSR_I;
	conductor_B OHCond_4_ACSR_I;
	conductor_C OHCond_4_ACSR_I;
	spacing OHSpacing_TRIANGULAR_3P_30;
}

// L_300062666_LineConfig
object line_configuration {
	name L_300062666_LineConfig;
	conductor_A OHCond_4/0_AAC_I;
	conductor_B OHCond_4/0_AAC_I;
	conductor_C OHCond_4/0_AAC_I;
	spacing OHSpacing_HORIZONTAL_3P_52;
}

// L_300107290_LineConfig
object line_configuration {
	name L_300107290_LineConfig;
	conductor_A OHCond_1/0_CU_I;
	conductor_B OHCond_1/0_CU_I;
	conductor_C OHCond_1/0_CU_I;
	spacing OHSpacing_HORIZONTAL_3P_52;
}

// L_300006479_LineConfig
object line_configuration {
	name L_300006479_LineConfig;
	conductor_A OHCond_715_AAC_I;
	conductor_B OHCond_715_AAC_I;
	conductor_C OHCond_715_AAC_I;
	spacing OHSpacing_HORIZONTAL_3P_52;
}

// L_300006482_LineConfig
object line_configuration {
	name L_300006482_LineConfig;
	conductor_A OHCond_6_CU_I;
	conductor_B OHCond_6_CU_I;
	conductor_C OHCond_6_CU_I;
	spacing OHSpacing_HORIZONTAL_3P_52;
}

// L_300116647_LineConfig
object line_configuration {
	name L_300116647_LineConfig;
	conductor_A OHCond_715_AAC_I;
	conductor_B OHCond_715_AAC_I;
	conductor_C OHCond_715_AAC_I;
	spacing OHSpacing_HORIZONTAL_3P_52;
}

// L_300062724_LineConfig
object line_configuration {
	name L_300062724_LineConfig;
	conductor_A OHCond_4_ACSR_I;
	conductor_B OHCond_4_ACSR_I;
	conductor_C OHCond_4_ACSR_I;
	spacing OHSpacing_TRIANGULAR_3P_30;
}

// L_300116511_LineConfig
object line_configuration {
	name L_300116511_LineConfig;
	conductor_A OHCond_715_AAC_I;
	conductor_B OHCond_715_AAC_I;
	conductor_C OHCond_715_AAC_I;
	spacing OHSpacing_HORIZONTAL_3P_52;
}

// L_300062711_LineConfig
object line_configuration {
	name L_300062711_LineConfig;
	conductor_A OHCond_4/0_AAC_I;
	conductor_B OHCond_4/0_AAC_I;
	conductor_C OHCond_4/0_AAC_I;
	spacing OHSpacing_HORIZONTAL_3P_52;
}

// L_300062726_LineConfig
object line_configuration {
	name L_300062726_LineConfig;
	conductor_A OHCond_6_CU_I;
	conductor_B OHCond_6_CU_I;
	conductor_C OHCond_6_CU_I;
	spacing OHSpacing_TRIANGULAR_3P_30;
}

// L_300064336_LineConfig
object line_configuration {
	name L_300064336_LineConfig;
	conductor_A OHCond_715_AAC_I;
	conductor_B OHCond_715_AAC_I;
	conductor_C OHCond_715_AAC_I;
	spacing OHSpacing_HORIZONTAL_3P_52;
}

// L_300064330_LineConfig
object line_configuration {
	name L_300064330_LineConfig;
	conductor_A OHCond_6_CU_I;
	conductor_B OHCond_6_CU_I;
	conductor_C OHCond_6_CU_I;
	spacing OHSpacing_HORIZONTAL_3P_52;
}

// L_300006472_LineConfig
object line_configuration {
	name L_300006472_LineConfig;
	conductor_A OHCond_4/0_AAC_I;
	conductor_B OHCond_4/0_AAC_I;
	conductor_C OHCond_4/0_AAC_I;
	spacing OHSpacing_HORIZONTAL_3P_52;
}

// L_300006469_LineConfig
object line_configuration {
	name L_300006469_LineConfig;
	conductor_A OHCond_4_ACSR_I;
	conductor_B OHCond_4_ACSR_I;
	conductor_C OHCond_4_ACSR_I;
	spacing OHSpacing_HORIZONTAL_3P_52;
}

// L_300096372_LineConfig
object line_configuration {
	name L_300096372_LineConfig;
	conductor_A OHCond_715_AAC_I;
	conductor_B OHCond_715_AAC_I;
	conductor_C OHCond_715_AAC_I;
	spacing OHSpacing_HORIZONTAL_3P_52;
}

// L_300064341_LineConfig
object line_configuration {
	name L_300064341_LineConfig;
	conductor_A OHCond_6_CU_I;
	conductor_B OHCond_6_CU_I;
	conductor_C OHCond_6_CU_I;
	spacing OHSpacing_HORIZONTAL_3P_52;
}

// L_300064340_LineConfig
object line_configuration {
	name L_300064340_LineConfig;
	conductor_A OHCond_4_ACSR_I;
	conductor_B OHCond_4_ACSR_I;
	spacing OHSpacing_HORIZONTAL_2P_52;
}

// L_300064333_LineConfig
object line_configuration {
	name L_300064333_LineConfig;
	conductor_A OHCond_4_ACSR_I;
	conductor_B OHCond_4_ACSR_I;
	conductor_C OHCond_4_ACSR_I;
	spacing OHSpacing_HORIZONTAL_3P_52;
}

// L_300009321_LineConfig
object line_configuration {
	name L_300009321_LineConfig;
	conductor_A OHCond_6_CU_I;
	conductor_B OHCond_6_CU_I;
	conductor_C OHCond_6_CU_I;
	spacing OHSpacing_HORIZONTAL_3P_52;
}

// L_300064345_LineConfig
object line_configuration {
	name L_300064345_LineConfig;
	conductor_A OHCond_4_ACSR_I;
	conductor_B OHCond_4_ACSR_I;
	conductor_C OHCond_4_ACSR_I;
	spacing OHSpacing_HORIZONTAL_3P_52;
}

// L_300006476_LineConfig
object line_configuration {
	name L_300006476_LineConfig;
	conductor_A OHCond_715_AAC_I;
	conductor_B OHCond_715_AAC_I;
	conductor_C OHCond_715_AAC_I;
	spacing OHSpacing_TRIANGULAR_3P_30;
}

// L_300006444_LineConfig
object line_configuration {
	name L_300006444_LineConfig;
	conductor_A OHCond_4_ACSR_I;
	conductor_B OHCond_4_ACSR_I;
	conductor_C OHCond_4_ACSR_I;
	spacing OHSpacing_HORIZONTAL_3P_52;
}

// L_300062759_LineConfig
object line_configuration {
	name L_300062759_LineConfig;
	conductor_A OHCond_4_ACSR_I;
	conductor_B OHCond_4_ACSR_I;
	conductor_C OHCond_4_ACSR_I;
	spacing OHSpacing_HORIZONTAL_3P_52;
}

// L_300062712_LineConfig
object line_configuration {
	name L_300062712_LineConfig;
	conductor_A OHCond_4_ACSR_I;
	conductor_B OHCond_4_ACSR_I;
	conductor_C OHCond_4_ACSR_I;
	spacing OHSpacing_HORIZONTAL_3P_52;
}

// L_300107820_LineConfig
object line_configuration {
	name L_300107820_LineConfig;
	conductor_A OHCond_715_AAC_I;
	conductor_B OHCond_715_AAC_I;
	conductor_C OHCond_715_AAC_I;
	spacing OHSpacing_TRIANGULAR_3P_30;
}

// L_300006478_LineConfig
object line_configuration {
	name L_300006478_LineConfig;
	conductor_A OHCond_715_AAC_I;
	conductor_B OHCond_715_AAC_I;
	conductor_C OHCond_715_AAC_I;
	spacing OHSpacing_TRIANGULAR_3P_30;
}

// L_300064988_LineConfig
object line_configuration {
	name L_300064988_LineConfig;
	conductor_A OHCond_715_AAC_I;
	conductor_B OHCond_715_AAC_I;
	conductor_C OHCond_715_AAC_I;
	spacing OHSpacing_TRIANGULAR_3P_30;
}

// L_300006443_LineConfig
object line_configuration {
	name L_300006443_LineConfig;
	conductor_A OHCond_4_ACSR_I;
	conductor_B OHCond_4_ACSR_I;
	conductor_C OHCond_4_ACSR_I;
	spacing OHSpacing_HORIZONTAL_3P_52;
}

// L_300064343_LineConfig
object line_configuration {
	name L_300064343_LineConfig;
	conductor_A OHCond_6_CU_I;
	conductor_B OHCond_6_CU_I;
	conductor_C OHCond_6_CU_I;
	spacing OHSpacing_HORIZONTAL_3P_52;
}

// L_300062667_LineConfig
object line_configuration {
	name L_300062667_LineConfig;
	conductor_A OHCond_1/0_CU_I;
	conductor_B OHCond_1/0_CU_I;
	conductor_C OHCond_1/0_CU_I;
	spacing OHSpacing_HORIZONTAL_3P_52;
}

// L_300064987_LineConfig
object line_configuration {
	name L_300064987_LineConfig;
	conductor_A OHCond_4_ACSR_I;
	conductor_B OHCond_4_ACSR_I;
	conductor_C OHCond_4_ACSR_I;
	spacing OHSpacing_TRIANGULAR_3P_30;
}

// L_300064338_LineConfig
object line_configuration {
	name L_300064338_LineConfig;
	conductor_A OHCond_6_CU_I;
	conductor_B OHCond_6_CU_I;
	conductor_C OHCond_6_CU_I;
	spacing OHSpacing_HORIZONTAL_3P_52;
}

// L_300064339_LineConfig
object line_configuration {
	name L_300064339_LineConfig;
	conductor_A OHCond_4_ACSR_I;
	conductor_B OHCond_4_ACSR_I;
	spacing OHSpacing_HORIZONTAL_2P_52;
}

// L_300064984_LineConfig
object line_configuration {
	name L_300064984_LineConfig;
	conductor_A OHCond_4_ACSR_I;
	conductor_B OHCond_4_ACSR_I;
	conductor_C OHCond_4_ACSR_I;
	spacing OHSpacing_TRIANGULAR_3P_30;
}

// L_300064344_LineConfig
object line_configuration {
	name L_300064344_LineConfig;
	conductor_A OHCond_4_ACSR_I;
	conductor_B OHCond_4_ACSR_I;
	conductor_C OHCond_4_ACSR_I;
	spacing OHSpacing_HORIZONTAL_3P_52;
}

// L_300006470_LineConfig
object line_configuration {
	name L_300006470_LineConfig;
	conductor_A OHCond_4/0_AAC_I;
	conductor_B OHCond_4/0_AAC_I;
	conductor_C OHCond_4/0_AAC_I;
	spacing OHSpacing_HORIZONTAL_3P_52;
}

// L_300064329_LineConfig
object line_configuration {
	name L_300064329_LineConfig;
	conductor_A OHCond_6_CU_I;
	conductor_B OHCond_6_CU_I;
	conductor_C OHCond_6_CU_I;
	spacing OHSpacing_HORIZONTAL_3P_52;
}

// L_300062665_LineConfig
object line_configuration {
	name L_300062665_LineConfig;
	conductor_A OHCond_1/0_CU_I;
	conductor_B OHCond_1/0_CU_I;
	conductor_C OHCond_1/0_CU_I;
	spacing OHSpacing_HORIZONTAL_3P_52;
}

// L_300103445_LineConfig
object line_configuration {
	name L_300103445_LineConfig;
	conductor_A OHCond_715_AAC_I;
	conductor_B OHCond_715_AAC_I;
	conductor_C OHCond_715_AAC_I;
	spacing OHSpacing_HORIZONTAL_3P_52;
}

// L_300064328_LineConfig
object line_configuration {
	name L_300064328_LineConfig;
	conductor_A OHCond_4_ACSR_I;
	conductor_B OHCond_4_ACSR_I;
	conductor_C OHCond_4_ACSR_I;
	spacing OHSpacing_HORIZONTAL_3P_52;
}

// L_300064983_LineConfig
object line_configuration {
	name L_300064983_LineConfig;
	conductor_A OHCond_715_AAC_I;
	conductor_B OHCond_715_AAC_I;
	conductor_C OHCond_715_AAC_I;
	spacing OHSpacing_TRIANGULAR_3P_30;
}

// L_300027085_LineConfig
object line_configuration {
	name L_300027085_LineConfig;
	conductor_A OHCond_715_AAC_I;
	conductor_B OHCond_715_AAC_I;
	conductor_C OHCond_715_AAC_I;
	spacing OHSpacing_HORIZONTAL_3P_52;
}

// L_300062718_LineConfig
object line_configuration {
	name L_300062718_LineConfig;
	conductor_A OHCond_715_AAC_I;
	conductor_B OHCond_715_AAC_I;
	conductor_C OHCond_715_AAC_I;
	spacing OHSpacing_HORIZONTAL_3P_52;
}

// L_300064342_LineConfig
object line_configuration {
	name L_300064342_LineConfig;
	conductor_A OHCond_6_CU_I;
	conductor_B OHCond_6_CU_I;
	conductor_C OHCond_6_CU_I;
	spacing OHSpacing_HORIZONTAL_3P_52;
}

// L_300103442_LineConfig
object line_configuration {
	name L_300103442_LineConfig;
	conductor_A OHCond_715_AAC_I;
	conductor_B OHCond_715_AAC_I;
	conductor_C OHCond_715_AAC_I;
	spacing OHSpacing_TRIANGULAR_3P_30;
}

// OHConfig_DEFAULT
object line_configuration {
	name OHConfig_DEFAULT;
	conductor_A OHCond_DEFAULT;
	conductor_B OHCond_DEFAULT;
	conductor_C OHCond_DEFAULT;
	conductor_N OHCond_DEFAULT;
	spacing OHSpacing_DEFAULT;
}

// L_300104950_LineConfig
object line_configuration {
	name L_300104950_LineConfig;
	conductor_A OHCond_6_CU_I;
	conductor_B OHCond_6_CU_I;
	conductor_C OHCond_6_CU_I;
	spacing OHSpacing_HORIZONTAL_3P_52;
}

// L_300062722_LineConfig
object line_configuration {
	name L_300062722_LineConfig;
	conductor_A OHCond_715_AAC_I;
	conductor_B OHCond_715_AAC_I;
	conductor_C OHCond_715_AAC_I;
	spacing OHSpacing_TRIANGULAR_3P_30;
}

// L_300117132_LineConfig
object line_configuration {
	name L_300117132_LineConfig;
	conductor_A OHCond_715_AAC_I;
	conductor_B OHCond_715_AAC_I;
	conductor_C OHCond_715_AAC_I;
	spacing OHSpacing_TRIANGULAR_3P_30;
}

// L_300001625_LineConfig
object line_configuration {
	name L_300001625_LineConfig;
	conductor_A OHCond_6_CU_I;
	conductor_B OHCond_6_CU_I;
	conductor_C OHCond_6_CU_I;
	spacing OHSpacing_HORIZONTAL_3P_52;
}

// L_300003131_LineConfig
object line_configuration {
	name L_300003131_LineConfig;
	conductor_A OHCond_4/0_AAC_I;
	conductor_B OHCond_4/0_AAC_I;
	conductor_C OHCond_4/0_AAC_I;
	spacing OHSpacing_HORIZONTAL_3P_52;
}

// L_300021646_LineConfig
object line_configuration {
	name L_300021646_LineConfig;
	conductor_A OHCond_715_AAC_I;
	conductor_B OHCond_715_AAC_I;
	conductor_C OHCond_715_AAC_I;
	spacing OHSpacing_HORIZONTAL_3P_52;
}

// L_300062721_LineConfig
object line_configuration {
	name L_300062721_LineConfig;
	conductor_A OHCond_4_ACSR_I;
	conductor_B OHCond_4_ACSR_I;
	spacing OHSpacing_TRIANGULAR_2P_30;
}

// L_300062714_LineConfig
object line_configuration {
	name L_300062714_LineConfig;
	conductor_A OHCond_4/0_AAC_I;
	conductor_B OHCond_4/0_AAC_I;
	conductor_C OHCond_4/0_AAC_I;
	spacing OHSpacing_HORIZONTAL_3P_52;
}

// L_300064337_LineConfig
object line_configuration {
	name L_300064337_LineConfig;
	conductor_A OHCond_6_CU_I;
	conductor_B OHCond_6_CU_I;
	conductor_C OHCond_6_CU_I;
	spacing OHSpacing_HORIZONTAL_3P_52;
}

// L_300116648_LineConfig
object line_configuration {
	name L_300116648_LineConfig;
	conductor_A OHCond_715_AAC_I;
	conductor_B OHCond_715_AAC_I;
	conductor_C OHCond_715_AAC_I;
	spacing OHSpacing_HORIZONTAL_3P_52;
}

// L_300095129_LineConfig
object line_configuration {
	name L_300095129_LineConfig;
	conductor_A OHCond_715_AAC_I;
	conductor_B OHCond_715_AAC_I;
	conductor_C OHCond_715_AAC_I;
	spacing OHSpacing_TRIANGULAR_3P_52;
}

// L_300064975_LineConfig
object line_configuration {
	name L_300064975_LineConfig;
	conductor_A OHCond_4_ACSR_I;
	conductor_B OHCond_4_ACSR_I;
	spacing OHSpacing_TRIANGULAR_2P_30;
}

// L_300027084_LineConfig
object line_configuration {
	name L_300027084_LineConfig;
	conductor_A OHCond_4/0_AAC_I;
	conductor_B OHCond_4/0_AAC_I;
	conductor_C OHCond_4/0_AAC_I;
	spacing OHSpacing_HORIZONTAL_3P_52;
}

// L_300006473_LineConfig
object line_configuration {
	name L_300006473_LineConfig;
	conductor_A OHCond_4/0_AAC_I;
	conductor_B OHCond_4/0_AAC_I;
	conductor_C OHCond_4/0_AAC_I;
	spacing OHSpacing_HORIZONTAL_3P_52;
}

// L_300062720_LineConfig
object line_configuration {
	name L_300062720_LineConfig;
	conductor_A OHCond_715_AAC_I;
	conductor_B OHCond_715_AAC_I;
	conductor_C OHCond_715_AAC_I;
	spacing OHSpacing_HORIZONTAL_3P_52;
}

// L_300116067_LineConfig
object line_configuration {
	name L_300116067_LineConfig;
	conductor_A OHCond_4_ACSR_I;
	conductor_B OHCond_4_ACSR_I;
	conductor_C OHCond_4_ACSR_I;
	spacing OHSpacing_HORIZONTAL_3P_52;
}

// L_300116643_LineConfig
object line_configuration {
	name L_300116643_LineConfig;
	conductor_A OHCond_4_ACSR_I;
	conductor_B OHCond_4_ACSR_I;
	conductor_C OHCond_4_ACSR_I;
	spacing OHSpacing_TRIANGULAR_3P_30;
}

// L_300006475_LineConfig
object line_configuration {
	name L_300006475_LineConfig;
	conductor_A OHCond_4/0_AAC_I;
	conductor_B OHCond_4/0_AAC_I;
	conductor_C OHCond_4/0_AAC_I;
	spacing OHSpacing_HORIZONTAL_3P_52;
}

// UGConfig_750_CU_1C_XLP-PVC_15KV_3P
object line_configuration {
	name UGConfig_750_CU_1C_XLP-PVC_15KV_3P;
	conductor_A UGCable_DEFAULT;
	conductor_B UGCable_DEFAULT;
	conductor_C UGCable_DEFAULT;
	conductor_N UGCable_DEFAULT;
	spacing UGSpacing_750_CU_1C_XLP-PVC_15KV_3P;
}

// UGConfig_700_AL_XLP-CONC-PVC_22KV_3P
object line_configuration {
	name UGConfig_700_AL_XLP-CONC-PVC_22KV_3P;
	conductor_A UGCable_DEFAULT;
	conductor_B UGCable_DEFAULT;
	conductor_C UGCable_DEFAULT;
	conductor_N UGCable_DEFAULT;
	spacing UGSpacing_700_AL_XLP-CONC-PVC_22KV_3P;
}

// UGConfig_1/0_AL_XLP-CONC-CIC_22KV_3P
object line_configuration {
	name UGConfig_1/0_AL_XLP-CONC-CIC_22KV_3P;
	conductor_A UGCable_DEFAULT;
	conductor_B UGCable_DEFAULT;
	conductor_C UGCable_DEFAULT;
	conductor_N UGCable_DEFAULT;
	spacing UGSpacing_1/0_AL_XLP-CONC-CIC_22KV_3P;
}

// UGConfig_2_AL_PEC_22KV_3P
object line_configuration {
	name UGConfig_2_AL_PEC_22KV_3P;
	conductor_A UGCable_DEFAULT;
	conductor_B UGCable_DEFAULT;
	conductor_C UGCable_DEFAULT;
	conductor_N UGCable_DEFAULT;
	spacing UGSpacing_2_AL_PEC_22KV_3P;
}

// UGConfig_2_AL_PEC_22KV_2P
object line_configuration {
	name UGConfig_2_AL_PEC_22KV_2P;
	conductor_A UGCable_DEFAULT;
	conductor_B UGCable_DEFAULT;
	conductor_C UGCable_DEFAULT;
	conductor_N UGCable_DEFAULT;
	spacing UGSpacing_2_AL_PEC_22KV_2P;
}

// UGConfig_2_AL_XLP-CONC-CIC_22KV_3P
object line_configuration {
	name UGConfig_2_AL_XLP-CONC-CIC_22KV_3P;
	conductor_A UGCable_DEFAULT;
	conductor_B UGCable_DEFAULT;
	conductor_C UGCable_DEFAULT;
	conductor_N UGCable_DEFAULT;
	spacing UGSpacing_2_AL_XLP-CONC-CIC_22KV_3P;
}

// UGConfig_1/0_AL_EPR-CONC-ENCAP-PE_3P
object line_configuration {
	name UGConfig_1/0_AL_EPR-CONC-ENCAP-PE_3P;
	conductor_A UGCable_DEFAULT;
	conductor_B UGCable_DEFAULT;
	conductor_C UGCable_DEFAULT;
	conductor_N UGCable_DEFAULT;
	spacing UGSpacing_1/0_AL_EPR-CONC-ENCAP-PE_3P;
}

// UGConfig_2_AL_XLP-CONC-PVC_22KV_2P
object line_configuration {
	name UGConfig_2_AL_XLP-CONC-PVC_22KV_2P;
	conductor_A UGCable_DEFAULT;
	conductor_B UGCable_DEFAULT;
	conductor_C UGCable_DEFAULT;
	conductor_N UGCable_DEFAULT;
	spacing UGSpacing_2_AL_XLP-CONC-PVC_22KV_2P;
}

// UGConfig_1/0_AL_EPR-CONC-ENCAP-PE_2P
object line_configuration {
	name UGConfig_1/0_AL_EPR-CONC-ENCAP-PE_2P;
	conductor_A UGCable_DEFAULT;
	conductor_B UGCable_DEFAULT;
	conductor_C UGCable_DEFAULT;
	conductor_N UGCable_DEFAULT;
	spacing UGSpacing_1/0_AL_EPR-CONC-ENCAP-PE_2P;
}

// UGConfig_2_AL_XLP-CONC-CIC_22KV_2P
object line_configuration {
	name UGConfig_2_AL_XLP-CONC-CIC_22KV_2P;
	conductor_A UGCable_DEFAULT;
	conductor_B UGCable_DEFAULT;
	conductor_C UGCable_DEFAULT;
	conductor_N UGCable_DEFAULT;
	spacing UGSpacing_2_AL_XLP-CONC-CIC_22KV_2P;
}

// UGConfig_2_AL_XLP-PVC_22KV_2P
object line_configuration {
	name UGConfig_2_AL_XLP-PVC_22KV_2P;
	conductor_A UGCable_DEFAULT;
	conductor_B UGCable_DEFAULT;
	conductor_C UGCable_DEFAULT;
	conductor_N UGCable_DEFAULT;
	spacing UGSpacing_2_AL_XLP-PVC_22KV_2P;
}

// UGConfig_2_AL_XLP-CONC-PVC_22KV_3P
object line_configuration {
	name UGConfig_2_AL_XLP-CONC-PVC_22KV_3P;
	conductor_A UGCable_DEFAULT;
	conductor_B UGCable_DEFAULT;
	conductor_C UGCable_DEFAULT;
	conductor_N UGCable_DEFAULT;
	spacing UGSpacing_2_AL_XLP-CONC-PVC_22KV_3P;
}

// UGConfig_1/0_AL_XLP-CONC-PVC_22KV_3P
object line_configuration {
	name UGConfig_1/0_AL_XLP-CONC-PVC_22KV_3P;
	conductor_A UGCable_DEFAULT;
	conductor_B UGCable_DEFAULT;
	conductor_C UGCable_DEFAULT;
	conductor_N UGCable_DEFAULT;
	spacing UGSpacing_1/0_AL_XLP-CONC-PVC_22KV_3P;
}

// UGConfig_DEFAULT
object line_configuration {
	name UGConfig_DEFAULT;
	conductor_A UGCable_DEFAULT;
	conductor_B UGCable_DEFAULT;
	conductor_C UGCable_DEFAULT;
	conductor_N UGCable_DEFAULT;
	spacing UGSpacing_DEFAULT;
}

// UGConfig_2_AL_XLP-PVC_22KV_3P
object line_configuration {
	name UGConfig_2_AL_XLP-PVC_22KV_3P;
	conductor_A UGCable_DEFAULT;
	conductor_B UGCable_DEFAULT;
	conductor_C UGCable_DEFAULT;
	conductor_N UGCable_DEFAULT;
	spacing UGSpacing_2_AL_XLP-PVC_22KV_3P;
}

// UGConfig_1100_AL_EPR-CONC-ENCAP-PE_3P
object line_configuration {
	name UGConfig_1100_AL_EPR-CONC-ENCAP-PE_3P;
	conductor_A UGCable_DEFAULT;
	conductor_B UGCable_DEFAULT;
	conductor_C UGCable_DEFAULT;
	conductor_N UGCable_DEFAULT;
	spacing UGSpacing_1100_AL_EPR-CONC-ENCAP-PE_3P;
}

// UGConfig_1000_AL_XLP-CONC-PVC_22KV_3P
object line_configuration {
	name UGConfig_1000_AL_XLP-CONC-PVC_22KV_3P;
	conductor_A UGCable_DEFAULT;
	conductor_B UGCable_DEFAULT;
	conductor_C UGCable_DEFAULT;
	conductor_N UGCable_DEFAULT;
	spacing UGSpacing_1000_AL_XLP-CONC-PVC_22KV_3P;
}

//*********************************************
// Node Objects
//*********************************************
object node {
	name N_300015618;
	nominal_voltage 7274.613;
	phases ABC;
}

object node {
	name N_300216892;
	nominal_voltage 7274.613;
	phases ABC;
}

object node {
	name N_300062318;
	nominal_voltage 7274.613;
	phases BC;
}

object node {
	name N_300006696;
	nominal_voltage 7274.613;
	phases BC;
}

object node {
	name N_300234176;
	nominal_voltage 7274.613;
	phases ABC;
}

object node {
	name N_300028913;
	nominal_voltage 7274.613;
	phases ABC;
}

object node {
	name N_300015617;
	nominal_voltage 7274.613;
	phases ABC;
}

object node {
	name N_300222931;
	nominal_voltage 7274.613;
	phases ABC;
}

object node {
	name N_300062338;
	nominal_voltage 7274.613;
	phases AB;
}

object node {
	name N_300005286;
	nominal_voltage 7274.613;
	phases ABC;
}

object node {
	name N_300062355;
	nominal_voltage 7274.613;
	phases AB;
}

object node {
	name N_300016484;
	nominal_voltage 7274.613;
	phases ABC;
}

object node {
	name N_300062330;
	nominal_voltage 7274.613;
	phases AB;
}

object node {
	name N_300062333;
	nominal_voltage 7274.613;
	phases AB;
}

object node {
	name N_300007131;
	nominal_voltage 7274.613;
	phases ABC;
}

object node {
	name N_300009642;
	nominal_voltage 7274.613;
	phases ABC;
}

object node {
	name N_300062334;
	nominal_voltage 7274.613;
	phases AB;
}

object node {
	name N_300017932;
	nominal_voltage 7274.613;
	phases BC;
}

object node {
	name N_300017930;
	nominal_voltage 7274.613;
	phases BC;
}

object node {
	name N_300016714;
	nominal_voltage 7274.613;
	phases ABC;
}

object node {
	name N_300062322;
	nominal_voltage 7274.613;
	phases BC;
}

object node {
	name N_300053282;
	nominal_voltage 7274.613;
	phases ABC;
}

object node {
	name N_300016712;
	nominal_voltage 7274.613;
	phases ABC;
}

object node {
	name N_300005287;
	nominal_voltage 7274.613;
	phases ABC;
}

object node {
	name N_300006692;
	nominal_voltage 7274.613;
	phases BC;
}

object node {
	name N_300006008;
	nominal_voltage 7274.613;
	phases AC;
}

object node {
	name N_300006001;
	nominal_voltage 7274.613;
	phases AC;
}

object node {
	name N_300222713;
	nominal_voltage 7274.613;
	phases ABC;
}

object node {
	name N_300020414;
	nominal_voltage 7274.613;
	phases ABC;
}

object node {
	name N_300063901;
	nominal_voltage 7274.613;
	phases ABC;
}

object node {
	name N_300063903;
	nominal_voltage 7274.613;
	phases ABC;
}

object node {
	name N_300007127;
	nominal_voltage 7274.613;
	phases ABC;
}

object node {
	name N_300062287;
	nominal_voltage 7274.613;
	phases ABC;
}

object node {
	name N_C904_63441105-SC;
	nominal_voltage 7274.613;
	phases ABC;
}

object node {
	name N_300062281;
	nominal_voltage 7274.613;
	phases ABC;
}

object node {
	name N_300062283;
	nominal_voltage 7274.613;
	phases ABC;
}

object node {
	name N_300007148;
	nominal_voltage 7274.613;
	phases ABC;
}

object node {
	name N_300007147;
	nominal_voltage 7274.613;
	phases ABC;
}

object node {
	name N_300062327;
	nominal_voltage 7274.613;
	phases BC;
}

object node {
	name N_300062325;
	nominal_voltage 7274.613;
	phases BC;
}

object node {
	name N_300062289;
	nominal_voltage 7274.613;
	phases ABC;
}

object node {
	name N_300001720;
	nominal_voltage 7274.613;
	phases ABC;
}

object node {
	name N_300216866;
	nominal_voltage 7274.613;
	phases ABC;
	bustype SWING;
}

object node {
	name N_300017929;
	nominal_voltage 7274.613;
	phases BC;
}

object node {
	name N_300062057;
	nominal_voltage 7274.613;
	phases ABC;
}

object node {
	name N_300221989;
	nominal_voltage 7274.613;
	phases ABC;
}

object node {
	name N_300003549;
	nominal_voltage 7274.613;
	phases ABC;
}

object node {
	name N_300216869;
	nominal_voltage 7274.613;
	phases ABC;
}

object node {
	name N_300221986;
	nominal_voltage 7274.613;
	phases ABC;
}

object node {
	name N_300005277;
	nominal_voltage 7274.613;
	phases ABC;
}

object node {
	name N_300234186;
	nominal_voltage 7274.613;
	phases ABC;
}

object node {
	name N_300234185;
	nominal_voltage 7274.613;
	phases ABC;
}

object node {
	name N_300062299;
	nominal_voltage 7274.613;
	phases ABC;
}

object node {
	name N_300004136;
	nominal_voltage 7274.613;
	phases AB;
}

object node {
	name N_300035504;
	nominal_voltage 7274.613;
	phases ABC;
}

object node {
	name N_300062291;
	nominal_voltage 7274.613;
	phases ABC;
}

object node {
	name N_C901_63441105-SC;
	nominal_voltage 7274.613;
	phases ABC;
}

object node {
	name N_300018975;
	nominal_voltage 7274.613;
	phases ABC;
}

object node {
	name N_300009646;
	nominal_voltage 7274.613;
	phases ABC;
}

object node {
	name N_300007158;
	nominal_voltage 7274.613;
	phases ABC;
}

object node {
	name N_300009647;
	nominal_voltage 7274.613;
	phases BC;
}

object node {
	name N_300007154;
	nominal_voltage 7274.613;
	phases ABC;
}

object node {
	name N_300007155;
	nominal_voltage 7274.613;
	phases ABC;
}

object node {
	name N_300007156;
	nominal_voltage 7274.613;
	phases ABC;
}

object node {
	name N_300007152;
	nominal_voltage 7274.613;
	phases ABC;
}

object node {
	name N_300007153;
	nominal_voltage 7274.613;
	phases ABC;
}

object node {
	name N_300097212;
	nominal_voltage 7274.613;
	phases ABC;
}

object node {
	name N_300233297;
	nominal_voltage 7274.613;
	phases AB;
}

object node {
	name N_300033980;
	nominal_voltage 7274.613;
	phases ABC;
}

object node {
	name N_300005283;
	nominal_voltage 7274.613;
	phases ABC;
}

object node {
	name N_300216893;
	nominal_voltage 7274.613;
	phases ABC;
}

object node {
	name N_300062357;
	nominal_voltage 7274.613;
	phases AB;
}

object node {
	name N_300005284;
	nominal_voltage 7274.613;
	phases ABC;
}

object node {
	name N_300005285;
	nominal_voltage 7274.613;
	phases ABC;
}

object node {
	name N_300033979;
	nominal_voltage 7274.613;
	phases ABC;
}

object node {
	name N_300003544;
	nominal_voltage 7274.613;
	phases ABC;
}

object node {
	name N_C2001_63441105-SC;
	nominal_voltage 7274.613;
	phases ABC;
}

object node {
	name N_300020630;
	nominal_voltage 7274.613;
	phases ABC;
}

object node {
	name N_300221991;
	nominal_voltage 7274.613;
	phases ABC;
}

object node {
	name N_300233290;
	nominal_voltage 7274.613;
	phases ABC;
}

object node {
	name N_300216891;
	nominal_voltage 7274.613;
	phases ABC;
}

object node {
	name N_300030113;
	nominal_voltage 7274.613;
	phases ABC;
}

object node {
	name N_300221192;
	nominal_voltage 7274.613;
	phases ABC;
}

object node {
	name N_300016711;
	nominal_voltage 7274.613;
	phases ABC;
}

object node {
	name N_300215856;
	nominal_voltage 7274.613;
	phases ABC;
}

object node {
	name N_300222712;
	nominal_voltage 7274.613;
	phases ABC;
}

object node {
	name N_300064557;
	nominal_voltage 7274.613;
	phases ABC;
}

object node {
	name N_300062314;
	nominal_voltage 7274.613;
	phases BC;
}

object node {
	name N_300216895;
	nominal_voltage 7274.613;
	phases ABC;
}

object node {
	name N_300062340;
	nominal_voltage 7274.613;
	phases AB;
}

object node {
	name N_300028883;
	nominal_voltage 7274.613;
	phases ABC;
}

object node {
	name N_300221196;
	nominal_voltage 7274.613;
	phases ABC;
}

object node {
	name N_300221197;
	nominal_voltage 7274.613;
	phases ABC;
}

object node {
	name N_300233922;
	nominal_voltage 7274.613;
	phases ABC;
}

object node {
	name N_300003550;
	nominal_voltage 7274.613;
	phases ABC;
}

object node {
	name N_300218841;
	nominal_voltage 7274.613;
	phases ABC;
}

object node {
	name N_300218843;
	nominal_voltage 7274.613;
	phases ABC;
}

object node {
	name N_300235423;
	nominal_voltage 7274.613;
	phases ABC;
}

object node {
	name N_300235422;
	nominal_voltage 7274.613;
	phases ABC;
}

object node {
	name N_300235420;
	nominal_voltage 7274.613;
	phases ABC;
}

object node {
	name N_300235427;
	nominal_voltage 7274.613;
	phases ABC;
}

object node {
	name N_300221198;
	nominal_voltage 7274.613;
	phases ABC;
}

object node {
	name N_300096825;
	nominal_voltage 7274.613;
	phases ABC;
}

object node {
	name N_300062352;
	nominal_voltage 7274.613;
	phases AB;
}

object node {
	name N_300020631;
	nominal_voltage 7274.613;
	phases ABC;
}

object node {
	name N_300062370;
	nominal_voltage 7274.613;
	phases ABC;
}

object node {
	name N_300020197;
	nominal_voltage 7274.613;
	phases ABC;
}

object node {
	name N_300062236;
	nominal_voltage 7274.613;
	phases ABC;
}

object node {
	name N_300053284;
	nominal_voltage 7274.613;
	phases ABC;
}

object node {
	name N_300062375;
	nominal_voltage 7274.613;
	phases ABC;
}

object node {
	name N_300062376;
	nominal_voltage 7274.613;
	phases ABC;
}

object node {
	name N_300062371;
	nominal_voltage 7274.613;
	phases ABC;
}

object node {
	name N_300062373;
	nominal_voltage 7274.613;
	phases ABC;
}

object node {
	name N_300062372;
	nominal_voltage 7274.613;
	phases ABC;
}

object node {
	name N_300233282;
	nominal_voltage 7274.613;
	phases ABC;
}

object node {
	name N_300007125;
	nominal_voltage 7274.613;
	phases ABC;
}

object node {
	name N_300020162;
	nominal_voltage 7274.613;
	phases ABC;
}

object node {
	name N_300235433;
	nominal_voltage 7274.613;
	phases ABC;
}

object node {
	name N_300025503;
	nominal_voltage 7274.613;
	phases ABC;
}

object node {
	name N_300025502;
	nominal_voltage 7274.613;
	phases ABC;
}

object node {
	name N_300233673;
	nominal_voltage 7274.613;
	phases ABC;
}

object node {
	name N_300004137;
	nominal_voltage 7274.613;
	phases BC;
}

object node {
	name N_300233583;
	nominal_voltage 7274.613;
	phases ABC;
}

object node {
	name N_300004135;
	nominal_voltage 7274.613;
	phases AB;
}

object node {
	name N_300007126;
	nominal_voltage 7274.613;
	phases ABC;
}

object node {
	name N_300062504;
	nominal_voltage 7274.613;
	phases ABC;
}

object node {
	name N_300062295;
	nominal_voltage 7274.613;
	phases ABC;
}

object node {
	name N_300235263;
	nominal_voltage 7274.613;
	phases ABC;
}

object node {
	name N_300063915;
	nominal_voltage 7274.613;
	phases ABC;
}

object node {
	name N_300062363;
	nominal_voltage 7274.613;
	phases ABC;
}

object node {
	name N_300062361;
	nominal_voltage 7274.613;
	phases ABC;
}

object node {
	name N_300062356;
	nominal_voltage 7274.613;
	phases AB;
}

object node {
	name N_300062364;
	nominal_voltage 7274.613;
	phases ABC;
}

object node {
	name N_300062365;
	nominal_voltage 7274.613;
	phases ABC;
}

object node {
	name N_300062368;
	nominal_voltage 7274.613;
	phases ABC;
}

object node {
	name N_C2002_63441105-SC;
	nominal_voltage 7274.613;
	phases ABC;
}

object node {
	name N_300032018;
	nominal_voltage 7274.613;
	phases AC;
}

object node {
	name N_300233294;
	nominal_voltage 7274.613;
	phases ABC;
}

object node {
	name N_300235409;
	nominal_voltage 7274.613;
	phases ABC;
}

object node {
	name N_300233293;
	nominal_voltage 7274.613;
	phases ABC;
}

object node {
	name N_300062235;
	nominal_voltage 7274.613;
	phases ABC;
}

object node {
	name N_300233291;
	nominal_voltage 7274.613;
	phases ABC;
}

object node {
	name N_300001840;
	nominal_voltage 7274.613;
	phases ABC;
}

object node {
	name N_300016360;
	nominal_voltage 7274.613;
	phases ABC;
}

object node {
	name N_300235401;
	nominal_voltage 7274.613;
	phases ABC;
}

object node {
	name N_300004143;
	nominal_voltage 7274.613;
	phases AB;
}

object node {
	name N_300235403;
	nominal_voltage 7274.613;
	phases ABC;
}

object node {
	name N_300235402;
	nominal_voltage 7274.613;
	phases ABC;
}

object node {
	name N_300233572;
	nominal_voltage 7274.613;
	phases ABC;
}

object node {
	name N_300062339;
	nominal_voltage 7274.613;
	phases AB;
}

object node {
	name N_300062395;
	nominal_voltage 7274.613;
	phases ABC;
}

object node {
	name N_300062394;
	nominal_voltage 7274.613;
	phases ABC;
}

object node {
	name N_300062393;
	nominal_voltage 7274.613;
	phases ABC;
}

object node {
	name N_300062391;
	nominal_voltage 7274.613;
	phases AB;
}

object node {
	name N_300062390;
	nominal_voltage 7274.613;
	phases AB;
}

object node {
	name N_300233278;
	nominal_voltage 7274.613;
	phases ABC;
}

object node {
	name N_300064568;
	nominal_voltage 7274.613;
	phases ABC;
}

object node {
	name N_300064566;
	nominal_voltage 7274.613;
	phases ABC;
}

object node {
	name N_300233292;
	nominal_voltage 7274.613;
	phases ABC;
}

object node {
	name N_300064564;
	nominal_voltage 7274.613;
	phases ABC;
}

object node {
	name N_300020629;
	nominal_voltage 7274.613;
	phases ABC;
}

object node {
	name N_300020628;
	nominal_voltage 7274.613;
	phases ABC;
}

object node {
	name N_300020413;
	nominal_voltage 7274.613;
	phases ABC;
}

object node {
	name N_300234137;
	nominal_voltage 7274.613;
	phases ABC;
}

object node {
	name N_300062061;
	nominal_voltage 7274.613;
	phases ABC;
}

object node {
	name N_300062311;
	nominal_voltage 7274.613;
	phases ABC;
}

object node {
	name N_300235394;
	nominal_voltage 7274.613;
	phases ABC;
}

object node {
	name N_300062069;
	nominal_voltage 7274.613;
	phases AC;
}

object node {
	name N_300062319;
	nominal_voltage 7274.613;
	phases BC;
}

object node {
	name N_300234139;
	nominal_voltage 7274.613;
	phases ABC;
}

object node {
	name N_300007198;
	nominal_voltage 7274.613;
	phases ABC;
}

object node {
	name N_300235410;
	nominal_voltage 7274.613;
	phases ABC;
}

object node {
	name N_300235411;
	nominal_voltage 7274.613;
	phases ABC;
}

object node {
	name N_300235416;
	nominal_voltage 7274.613;
	phases ABC;
}

object node {
	name N_300235417;
	nominal_voltage 7274.613;
	phases ABC;
}

object node {
	name N_300235414;
	nominal_voltage 7274.613;
	phases ABC;
}

object node {
	name N_300235415;
	nominal_voltage 7274.613;
	phases ABC;
}

object node {
	name N_300218840;
	nominal_voltage 7274.613;
	phases ABC;
}

object node {
	name N_300235418;
	nominal_voltage 7274.613;
	phases ABC;
}

object node {
	name N_300235419;
	nominal_voltage 7274.613;
	phases ABC;
}

object node {
	name N_300096016;
	nominal_voltage 7274.613;
	phases ABC;
}

object node {
	name N_300096015;
	nominal_voltage 7274.613;
	phases ABC;
}

object node {
	name N_300221193;
	nominal_voltage 7274.613;
	phases ABC;
}

object node {
	name N_300062388;
	nominal_voltage 7274.613;
	phases AB;
}

object node {
	name N_300062316;
	nominal_voltage 7274.613;
	phases BC;
}

object node {
	name N_300062384;
	nominal_voltage 7274.613;
	phases BC;
}

object node {
	name N_300062386;
	nominal_voltage 7274.613;
	phases BC;
}

object node {
	name N_300221191;
	nominal_voltage 7274.613;
	phases ABC;
}

object node {
	name N_300062380;
	nominal_voltage 7274.613;
	phases BC;
}

object node {
	name N_300062381;
	nominal_voltage 7274.613;
	phases BC;
}

object node {
	name N_300062383;
	nominal_voltage 7274.613;
	phases BC;
}

object node {
	name N_300063912;
	nominal_voltage 7274.613;
	phases ABC;
}

object node {
	name N_300062313;
	nominal_voltage 7274.613;
	phases AB;
}

object node {
	name N_300062070;
	nominal_voltage 7274.613;
	phases AC;
}

object node {
	name N_300062074;
	nominal_voltage 7274.613;
	phases AC;
}

object node {
	name N_300007124;
	nominal_voltage 7274.613;
	phases BC;
}

object node {
	name N_300018093;
	nominal_voltage 7274.613;
	phases ABC;
}

object node {
	name N_300000726;
	nominal_voltage 7274.613;
	phases ABC;
}

object node {
	name N_300007120;
	nominal_voltage 7274.613;
	phases ABC;
}

object node {
	name N_300233923;
	nominal_voltage 7274.613;
	phases ABC;
}

object node {
	name N_300062308;
	nominal_voltage 7274.613;
	phases ABC;
}

object node {
	name N_300062309;
	nominal_voltage 7274.613;
	phases ABC;
}

object node {
	name N_300005282;
	nominal_voltage 7274.613;
	phases AC;
}

object node {
	name N_300235391;
	nominal_voltage 7274.613;
	phases ABC;
}

object node {
	name N_300235393;
	nominal_voltage 7274.613;
	phases ABC;
}

object node {
	name N_300235392;
	nominal_voltage 7274.613;
	phases ABC;
}

object node {
	name N_300095357;
	nominal_voltage 7274.613;
	phases ABC;
}

object node {
	name N_300221199;
	nominal_voltage 7274.613;
	phases ABC;
}

//*********************************************
// Load Objects
//*********************************************

object load {
	name N_300033983;
	phases ABC;
	nominal_voltage 7274.613;
	constant_power_A_real 43404.876;
	constant_power_B_real 43404.876;
	constant_power_C_real 43404.876;
	constant_power_A_reac 26899.9261601;
	constant_power_B_reac 26899.9261601;
	constant_power_C_reac 26899.9261601;
}

object load {
	name N_300062331;
	phases AB;
	nominal_voltage 7274.613;
	constant_power_A_real 22440.493;
	constant_power_B_real 22440.493;
	constant_power_C_real 0;
	constant_power_A_reac 7609.10242115;
	constant_power_B_reac 7609.10242115;
	constant_power_C_reac 0;
}

object load {
	name N_300062332;
	phases AB;
	nominal_voltage 7274.613;
	constant_power_A_real 19642.223;
	constant_power_B_real 19642.223;
	constant_power_C_real 0;
	constant_power_A_reac 6456.08649048;
	constant_power_B_reac 6456.08649048;
	constant_power_C_reac 0;
}

object load {
	name N_300062337;
	phases AB;
	nominal_voltage 7274.613;
	constant_power_A_real 9046.833;
	constant_power_B_real 9046.833;
	constant_power_C_real 0;
	constant_power_A_reac 2973.55020931;
	constant_power_B_reac 2973.55020931;
	constant_power_C_reac 0;
}

object load {
	name N_300062336;
	phases AB;
	nominal_voltage 7274.613;
	constant_power_A_real 29442.959;
	constant_power_B_real 29442.959;
	constant_power_C_real 0;
	constant_power_A_reac 9677.43263273;
	constant_power_B_reac 9677.43263273;
	constant_power_C_reac 0;
}

object load {
	name N_300017937;
	phases ABC;
	nominal_voltage 7274.613;
	constant_power_A_real 18686.827;
	constant_power_B_real 18686.827;
	constant_power_C_real 18686.827;
	constant_power_A_reac 6142.06301113;
	constant_power_B_reac 6142.06301113;
	constant_power_C_reac 6142.06301113;
}

object load {
	name N_300006691;
	phases BC;
	nominal_voltage 7274.613;
	constant_power_A_real 0;
	constant_power_B_real 28206.83;
	constant_power_C_real 28206.83;
	constant_power_A_reac 0;
	constant_power_B_reac 9271.13667848;
	constant_power_C_reac 9271.13667848;
}

object load {
	name N_300053281;
	phases ABC;
	nominal_voltage 7274.613;
	constant_power_A_real 19832.397;
	constant_power_B_real 19832.397;
	constant_power_C_real 19832.397;
	constant_power_A_reac 6518.5936615;
	constant_power_B_reac 6518.5936615;
	constant_power_C_reac 6518.5936615;
}

object load {
	name N_300062231;
	phases ABC;
	nominal_voltage 7274.613;
	constant_power_A_real 9.056;
	constant_power_B_real 9.056;
	constant_power_C_real 9.056;
	constant_power_A_reac 2.9765632565;
	constant_power_B_reac 2.9765632565;
	constant_power_C_reac 2.9765632565;
}

object load {
	name N_300062232;
	phases ABC;
	nominal_voltage 7274.613;
	constant_power_A_real 0.0;
	constant_power_B_real 0.0;
	constant_power_C_real 0.0;
	constant_power_A_reac 0.0;
	constant_power_B_reac 0.0;
	constant_power_C_reac 0.0;
}

object load {
	name N_300062233;
	phases ABC;
	nominal_voltage 7274.613;
	constant_power_A_real 2087.38233333;
	constant_power_B_real 2087.38233333;
	constant_power_C_real 2087.38233333;
	constant_power_A_reac 686.089394398;
	constant_power_B_reac 686.089394398;
	constant_power_C_reac 686.089394398;
}

object load {
	name N_300053285;
	phases ABC;
	nominal_voltage 7274.613;
	constant_power_A_real 16757.9226667;
	constant_power_B_real 16757.9226667;
	constant_power_C_real 16757.9226667;
	constant_power_A_reac 5508.06281635;
	constant_power_B_reac 5508.06281635;
	constant_power_C_reac 5508.06281635;
}

object load {
	name N_300053286;
	phases ABC;
	nominal_voltage 7274.613;
	constant_power_A_real 9481.51566667;
	constant_power_B_real 9481.51566667;
	constant_power_C_real 9481.51566667;
	constant_power_A_reac 3116.42349264;
	constant_power_B_reac 3116.42349264;
	constant_power_C_reac 3116.42349264;
}

object load {
	name N_300218837;
	phases AC;
	nominal_voltage 7274.613;
	constant_power_A_real 19750.894;
	constant_power_B_real 0;
	constant_power_C_real 19750.894;
	constant_power_A_reac 6491.80492087;
	constant_power_B_reac 0;
	constant_power_C_reac 6491.80492087;
}

object load {
	name N_300062321;
	phases BC;
	nominal_voltage 7274.613;
	constant_power_A_real 0;
	constant_power_B_real 39073.897;
	constant_power_C_real 39073.897;
	constant_power_A_reac 0;
	constant_power_B_reac 12842.9688713;
	constant_power_C_reac 12842.9688713;
}

object load {
	name N_300063904;
	phases ABC;
	nominal_voltage 7274.613;
	constant_power_A_real 0.0;
	constant_power_B_real 0.0;
	constant_power_C_real 0.0;
	constant_power_A_reac 0.0;
	constant_power_B_reac 0.0;
	constant_power_C_reac 0.0;
}

object load {
	name N_300063907;
	phases ABC;
	nominal_voltage 7274.613;
	constant_power_A_real 665.608;
	constant_power_B_real 665.608;
	constant_power_C_real 665.608;
	constant_power_A_reac 218.77476988;
	constant_power_B_reac 218.77476988;
	constant_power_C_reac 218.77476988;
}

object load {
	name N_300063906;
	phases ABC;
	nominal_voltage 7274.613;
	constant_power_A_real 0.0;
	constant_power_B_real 0.0;
	constant_power_C_real 0.0;
	constant_power_A_reac 0.0;
	constant_power_B_reac 0.0;
	constant_power_C_reac 0.0;
}

object load {
	name N_300063902;
	phases ABC;
	nominal_voltage 7274.613;
	constant_power_A_real 0.0;
	constant_power_B_real 0.0;
	constant_power_C_real 0.0;
	constant_power_A_reac 0.0;
	constant_power_B_reac 0.0;
	constant_power_C_reac 0.0;
}

object load {
	name N_300062377;
	phases ABC;
	nominal_voltage 7274.613;
	constant_power_A_real 13203.486;
	constant_power_B_real 13203.486;
	constant_power_C_real 13203.486;
	constant_power_A_reac 4416.21441364;
	constant_power_B_reac 4416.21441364;
	constant_power_C_reac 4416.21441364;
}

object load {
	name N_300063909;
	phases ABC;
	nominal_voltage 7274.613;
	constant_power_A_real 0.0;
	constant_power_B_real 0.0;
	constant_power_C_real 0.0;
	constant_power_A_reac 0.0;
	constant_power_B_reac 0.0;
	constant_power_C_reac 0.0;
}

object load {
	name N_300063908;
	phases ABC;
	nominal_voltage 7274.613;
	constant_power_A_real 2580.92833333;
	constant_power_B_real 2580.92833333;
	constant_power_C_real 2580.92833333;
	constant_power_A_reac 848.310119772;
	constant_power_B_reac 848.310119772;
	constant_power_C_reac 848.310119772;
}

object load {
	name N_300062285;
	phases ABC;
	nominal_voltage 7274.613;
	constant_power_A_real 1408.19066667;
	constant_power_B_real 1408.19066667;
	constant_power_C_real 1408.19066667;
	constant_power_A_reac 462.849889195;
	constant_power_B_reac 462.849889195;
	constant_power_C_reac 462.849889195;
}

object load {
	name N_300062284;
	phases ABC;
	nominal_voltage 7274.613;
	constant_power_A_real 190.173666667;
	constant_power_B_real 190.173666667;
	constant_power_C_real 190.173666667;
	constant_power_A_reac 117.85905323;
	constant_power_B_reac 117.85905323;
	constant_power_C_reac 117.85905323;
}

object load {
	name N_300062286;
	phases ABC;
	nominal_voltage 7274.613;
	constant_power_A_real 0.0;
	constant_power_B_real 0.0;
	constant_power_C_real 0.0;
	constant_power_A_reac 0.0;
	constant_power_B_reac 0.0;
	constant_power_C_reac 0.0;
}

object load {
	name N_300062280;
	phases ABC;
	nominal_voltage 7274.613;
	constant_power_A_real 0.0;
	constant_power_B_real 0.0;
	constant_power_C_real 0.0;
	constant_power_A_reac 0.0;
	constant_power_B_reac 0.0;
	constant_power_C_reac 0.0;
}

object load {
	name N_300062328;
	phases ABC;
	nominal_voltage 7274.613;
	constant_power_A_real 0.0;
	constant_power_B_real 0.0;
	constant_power_C_real 0.0;
	constant_power_A_reac 0.0;
	constant_power_B_reac 0.0;
	constant_power_C_reac 0.0;
}

object load {
	name N_300062329;
	phases AB;
	nominal_voltage 7274.613;
	constant_power_A_real 27283.13;
	constant_power_B_real 27283.13;
	constant_power_C_real 0;
	constant_power_A_reac 8967.53117053;
...